Version 4
SHEET 1 1140 680
WIRE 416 112 416 -48
WIRE 0 128 0 -48
WIRE 688 128 496 128
WIRE 496 208 496 128
WIRE 544 208 496 208
WIRE 688 224 688 128
WIRE 688 224 608 224
WIRE 752 224 688 224
WIRE 848 224 832 224
WIRE 960 224 928 224
WIRE 1072 224 960 224
WIRE 0 240 0 208
WIRE 224 240 0 240
WIRE 416 240 416 192
WIRE 416 240 288 240
WIRE 544 240 416 240
WIRE 560 240 544 240
WIRE 416 256 416 240
WIRE 0 272 0 240
WIRE 960 304 960 224
WIRE 0 448 0 352
WIRE 960 448 960 368
WIRE 960 464 960 448
WIRE 416 512 416 336
FLAG 416 512 0
FLAG 960 448 0
FLAG 1072 224 vout
FLAG 0 448 0
FLAG 0 -48 0
FLAG 416 -48 5V
SYMBOL res -16 256 R0
SYMATTR InstName R1
SYMATTR Value 47k
SYMBOL cap 288 224 R90
WINDOW 0 0 32 VBottom 2
WINDOW 3 32 32 VTop 2
SYMATTR InstName C1
SYMATTR Value 56n
SYMBOL res 400 96 R0
SYMATTR InstName R3
SYMATTR Value 25836.84
SYMBOL OpAmps\\OP07 576 160 R0
SYMATTR InstName U1
SYMBOL res 848 208 R90
WINDOW 0 0 56 VBottom 2
WINDOW 3 32 56 VTop 2
SYMATTR InstName R4
SYMATTR Value 100k
SYMBOL cap 944 304 R0
SYMATTR InstName C2
SYMATTR Value 56n
SYMBOL res 400 240 R0
SYMATTR InstName R5
SYMATTR Value 51673.68
SYMBOL res 944 208 R90
WINDOW 0 0 56 VBottom 2
WINDOW 3 32 56 VTop 2
SYMATTR InstName R6
SYMATTR Value 42102.63
SYMBOL voltage 0 112 R0
WINDOW 123 24 124 Left 2
WINDOW 39 0 0 Left 0
SYMATTR InstName V2
SYMATTR Value SINE(0 2.5 100)
SYMATTR Value2 AC 2.5 0
TEXT -70 536 Left 2 !;.tran 100m
TEXT 88 488 Left 2 !.ac dec 100 1 1k
